LAMMPS (29 Aug 2024)
Loaded 1 plugins from C:\Users\angel\AppData\Local\LAMMPS 64-bit 29Aug2024 with GUI\plugins
# Lennard-Jones input file for MD benchmark

units lj
atom_style atomic

# Define the simulation box
lattice fcc 0.8442
Lattice spacing in x,y,z = 1.6795962 1.6795962 1.6795962
region box block 0 10 0 10 0 10
create_box 1 box
Created orthogonal box = (0 0 0) to (16.795962 16.795962 16.795962)
create_atoms 1 box
Created 4000 atoms

# Define mass and initial velocity
mass 1 1.0
velocity all create 1.444 234985231

# Define pair style and coefficients
pair_style lj/cut 2.8
pair_coeff 1 1 1.0 1.0 2.5

# Neighbor settings
neighbor 0.3 bin
neigh_modify every 20 delay 0 check no

# Define the fix
fix 1 all nve
timestep 0.00462

# Thermo settings
thermo 100

# Output settings
dump 1 all atom 100 dump.lj
dump_modify 1 sort id

# Run the simulation
run 10000
Generated 0 of 0 mixed pair_coeff terms from geometric mixing rule
Step          Temp          E_pair         E_mol          TotEng         Press
0   1.444         -6.7733681      0             -4.6079096     -5.0165972
Averages over the last 51 of 101 rows, steps 5000 to 10000:
Temp E_pair E_mol TotEng Press
0.699958 -5.66459 0 -4.61491 0.760129
Loop time of 19.6405 on 1 procs for 10000 steps with 4000 atoms
